58
STO-110-O
Sr    0.000000    0.000000    0.000000
Sr    0.000000    0.000000    3.905000
Sr    0.000000    3.905000    0.000000
Sr    0.000000    3.905000    3.905000
Sr    3.905000    0.000000    0.000000
Sr    3.905000    0.000000    3.905000
Sr    3.905000    3.905000    0.000000
Sr    3.905000    3.905000    3.905000
Ti   -1.952500    1.952500    1.952500
Ti    1.952500   -1.952500    1.952500
Ti    1.952500    1.952500    1.952500
Ti    1.952500    5.857500    1.952500
Ti    5.857500    1.952500    1.952500
 O    0.000000    0.000000    1.952500
 O    0.000000    3.905000    1.952500
 O    3.905000    0.000000    1.952500
 O    3.905000    3.905000    1.952500
 O    1.952500    0.000000    0.000000
 O    1.952500    0.000000    3.905000
 O    1.952500    3.905000    0.000000
 O    1.952500    3.905000    3.905000
 O    5.857500    3.905000    0.000000
 O    5.857500    3.905000    3.905000
 O    0.000000    1.952500    0.000000
 O    0.000000    1.952500    3.905000
 O    3.905000    1.952500    0.000000
 O    3.905000    1.952500    3.905000
 O    3.905000    5.857500    0.000000
 O    3.905000    5.857500    3.905000
Sr   19.525000   19.525000    0.000000
Sr   19.525000   19.525000    3.905000
Sr   19.525000   15.620000    0.000000
Sr   19.525000   15.620000    3.905000
Sr   15.620000   19.525000    0.000000
Sr   15.620000   19.525000    3.905000
Sr   15.620000   15.620000    0.000000
Sr   15.620000   15.620000    3.905000
Ti   21.477499   17.572500    1.952500
Ti   17.572500   21.477499    1.952500
Ti   17.572500   17.572500    1.952500
Ti   17.572500   13.667500    1.952500
Ti   13.667500   17.572500    1.952500
 O   19.525000   19.525000    1.952500
 O   19.525000   15.620000    1.952500
 O   15.620000   19.525000    1.952500
 O   15.620000   15.620000    1.952500
 O   17.572500   19.525000    0.000000
 O   17.572500   19.525000    3.905000
 O   17.572500   15.620000    0.000000
 O   17.572500   15.620000    3.905000
 O   13.667500   15.620000    0.000000
 O   13.667500   15.620000    3.905000
 O   19.525000   17.572500    0.000000
 O   19.525000   17.572500    3.905000
 O   15.620000   17.572500    0.000000
 O   15.620000   17.572500    3.905000
 O   15.620000   13.667500    0.000000
 O   15.620000   13.667500    3.905000
